
Note: No compatibility mode selected!


Circuit: ** sch_path: /home/thaonguyen06/eda/project/celltests/buffer_tran.sch

binary raw file "/home/thaonguyen06/.xschem/simulations/buffer_tran.raw"
Doing analysis at TEMP = 27.000000 and TNOM = 27.000000

No. of Data Columns : 19  

Initial Transient Solution
--------------------------

Node                                   Voltage
----                                   -------
x1.net1                                    1.8
vin                                          0
vdd                                        1.8
vout                               2.13105e-07
vin#branch                                   0
vdd#branch                        -3.21942e-10


No. of Data Rows : 101208

Total analysis time (seconds) = 1.29506

Total CPU time (seconds) = 4.246 

Total DRAM available = 3753.941 MB.
DRAM currently available = 2087.656 MB.
Maximum ngspice program size =  107.473 MB.
Current ngspice program size =  102.551 MB.

Shared ngspice pages =    7.215 MB.
Text (code) pages =    5.062 MB.
Stack = 0 bytes.
Library pages =   96.312 MB.

