
Note: No compatibility mode selected!


Circuit: ** sch_path: /home/thaonguyen06/eda/project/nand_tran.sch

binary raw file "/home/thaonguyen06/.xschem/simulations/nand_tran.raw"
Doing analysis at TEMP = 27.000000 and TNOM = 27.000000

No. of Data Columns : 22  

Initial Transient Solution
--------------------------

Node                                   Voltage
----                                   -------
vout                                       1.8
vinb                                         0
x1.net1                              0.0360299
vina                                         0
x1.net2                              0.0178425
vdd                                        1.8
vin1#branch                                  0
vin2#branch                                  0
vdd#branch                        -1.87309e-12


No. of Data Rows : 101802

Total analysis time (seconds) = 1.80276

Total CPU time (seconds) = 5.639 

Total DRAM available = 3753.941 MB.
DRAM currently available = 2236.422 MB.
Maximum ngspice program size =  107.469 MB.
Current ngspice program size =  102.527 MB.

Shared ngspice pages =    7.188 MB.
Text (code) pages =    5.062 MB.
Stack = 0 bytes.
Library pages =   96.309 MB.

