
Note: No compatibility mode selected!


Circuit: ** sch_path: /home/thaonguyen06/eda/project/celltests/nor_tran.sch

binary raw file "/home/thaonguyen06/.xschem/simulations/nor_tran.raw"
Doing analysis at TEMP = 27.000000 and TNOM = 27.000000

No. of Data Columns : 23  

Initial Transient Solution
--------------------------

Node                                   Voltage
----                                   -------
vdd                                        1.8
vina                                         0
vinb                                         0
vout                                       1.8
x1.net2                              0.0477782
x1.net3                              0.0477782
x1.net1                                    1.8
vin1#branch                                  0
vin2#branch                                  0
vdd#branch                        -3.69564e-12


No. of Data Rows : 101802

Total analysis time (seconds) = 1.41357

Total CPU time (seconds) = 4.230 

Total DRAM available = 3753.941 MB.
DRAM currently available = 2364.805 MB.
Maximum ngspice program size =  107.465 MB.
Current ngspice program size =  101.984 MB.

Shared ngspice pages =    6.871 MB.
Text (code) pages =    5.062 MB.
Stack = 0 bytes.
Library pages =   96.305 MB.

