
Note: No compatibility mode selected!


Circuit: ** sch_path: /home/thaonguyen06/eda/project/celltests/or_tran.sch

binary raw file "/home/thaonguyen06/.xschem/simulations/or_tran.raw"
Doing analysis at TEMP = 27.000000 and TNOM = 27.000000

No. of Data Columns : 28  

Initial Transient Solution
--------------------------

Node                                   Voltage
----                                   -------
vdd                                        1.8
vina                                         0
vinb                                         0
x1.net2                                    1.8
x1.net1                                    1.8
vout                               2.13104e-07
vin1#branch                                  0
vin2#branch                                  0
vdd#branch                        -3.23977e-10


No. of Data Rows : 101802

Total analysis time (seconds) = 2.0708

Total CPU time (seconds) = 4.991 

Total DRAM available = 3753.941 MB.
DRAM currently available = 2149.828 MB.
Maximum ngspice program size =  117.113 MB.
Current ngspice program size =  112.008 MB.

Shared ngspice pages =    7.129 MB.
Text (code) pages =    5.062 MB.
Stack = 0 bytes.
Library pages =  105.953 MB.

